<?xml version="1.0" encoding="UTF-8"?>

<!-- generated on 2025-11-20 14:31:07 by Eclipse SUMO netedit Version 1.24.0
<neteditConfiguration xmlns:xsi="http://www.w3.org/2001/XMLSchema-instance" xsi:noNamespaceSchemaLocation="http://sumo.dlr.de/xsd/neteditConfiguration.xsd">

    <input>
        <sumocfg-file value="C:\Users\ZNDeu\Downloads\Non-Preemption\Test1.sumocfg"/>
        <route-files value="C:\Users\ZNDeu\Downloads\Non-Preemption\Test1.rou.xml"/>
        <sumo-net-file value="C:\Users\ZNDeu\Downloads\Non-Preemption\Test1.net.xml"/>
    </input>

    <output>
        <output-file value="C:\Users\ZNDeu\Downloads\Non-Preemption\Test1.net.xml"/>
    </output>

    <processing>
        <geometry.min-radius.fix.railways value="false"/>
        <geometry.avoid-overlap value="false"/>
        <geometry.max-grade.fix value="false"/>
        <offset.disable-normalization value="true"/>
        <lefthand value="0"/>
    </processing>

    <junctions>
        <no-turnarounds value="true"/>
        <junctions.corner-detail value="5"/>
        <junctions.limit-turn-speed value="5.50"/>
        <rectangular-lane-cut value="0"/>
    </junctions>

    <pedestrian>
        <walkingareas value="0"/>
    </pedestrian>

</neteditConfiguration>
-->

<net version="1.20" junctionCornerDetail="5" limitTurnSpeed="5.50" avoidOverlap="0" xmlns:xsi="http://www.w3.org/2001/XMLSchema-instance" xsi:noNamespaceSchemaLocation="http://sumo.dlr.de/xsd/net_file.xsd">

    <location netOffset="0.00,0.00" convBoundary="-90.24,-41.71,81.34,24.51" origBoundary="-10000000000.00,-10000000000.00,10000000000.00,10000000000.00" projParameter="!"/>

    <edge id=":Node1_0" function="internal">
        <lane id=":Node1_0_0" index="0" speed="6.08" length="7.71" shape="-86.70,26.11 -88.79,25.81 -90.28,24.92 -91.19,23.42 -91.50,21.34"/>
    </edge>
    <edge id=":Node1_1" function="internal">
        <lane id=":Node1_1_0" index="0" speed="3.90" length="2.57" shape="-88.30,21.32 -88.19,22.01 -87.89,22.51 -87.39,22.81 -86.70,22.91"/>
    </edge>
    <edge id=":Node2_0" function="internal">
        <lane id=":Node2_0_0" index="0" speed="13.89" length="14.40" shape="3.77,26.11 -10.63,26.11"/>
    </edge>
    <edge id=":Node2_1" function="internal">
        <lane id=":Node2_1_0" index="0" speed="8.03" length="4.05" shape="3.77,26.11 -0.07,25.56 -0.22,25.47"/>
    </edge>
    <edge id=":Node2_6" function="internal">
        <lane id=":Node2_6_0" index="0" speed="8.03" length="10.15" shape="-0.22,25.47 -2.82,23.91 -4.49,21.15 -5.06,17.30"/>
    </edge>
    <edge id=":Node2_2" function="internal">
        <lane id=":Node2_2_0" index="0" speed="6.54" length="9.07" shape="-1.86,17.27 -1.50,19.74 -0.44,21.50 1.32,22.56 3.77,22.91"/>
    </edge>
    <edge id=":Node2_3" function="internal">
        <lane id=":Node2_3_0" index="0" speed="7.99" length="14.22" shape="-1.86,17.27 -2.39,21.14 -4.02,23.90 -6.77,25.56 -10.63,26.11"/>
    </edge>
    <edge id=":Node2_4" function="internal">
        <lane id=":Node2_4_0" index="0" speed="6.49" length="9.03" shape="-10.63,22.91 -8.18,22.56 -6.44,21.51 -5.40,19.75 -5.06,17.30"/>
    </edge>
    <edge id=":Node2_5" function="internal">
        <lane id=":Node2_5_0" index="0" speed="13.89" length="14.40" shape="-10.63,22.91 3.77,22.91"/>
    </edge>
    <edge id=":Node3_0" function="internal">
        <lane id=":Node3_0_0" index="0" speed="6.08" length="7.74" shape="82.94,21.31 82.64,23.41 81.74,24.91 80.24,25.81 78.14,26.11"/>
    </edge>
    <edge id=":Node3_1" function="internal">
        <lane id=":Node3_1_0" index="0" speed="3.90" length="2.58" shape="78.14,22.91 78.84,22.81 79.34,22.51 79.64,22.01 79.74,21.31"/>
    </edge>
    <edge id=":Node4_0" function="internal">
        <lane id=":Node4_0_0" index="0" speed="6.08" length="7.77" shape="-91.82,-38.48 -91.53,-40.60 -90.64,-42.10 -89.13,-43.01 -87.02,-43.31"/>
    </edge>
    <edge id=":Node4_1" function="internal">
        <lane id=":Node4_1_0" index="0" speed="3.90" length="2.59" shape="-87.02,-40.11 -87.73,-40.01 -88.23,-39.71 -88.53,-39.21 -88.62,-38.50"/>
    </edge>
    <edge id=":Node5_0" function="internal">
        <lane id=":Node5_0_0" index="0" speed="6.54" length="9.07" shape="-5.45,-34.47 -5.81,-36.94 -6.87,-38.70 -8.63,-39.76 -11.08,-40.11"/>
    </edge>
    <edge id=":Node5_1" function="internal">
        <lane id=":Node5_1_0" index="0" speed="7.99" length="14.22" shape="-5.45,-34.47 -4.92,-38.34 -3.29,-41.10 -0.54,-42.76 3.32,-43.31"/>
    </edge>
    <edge id=":Node5_2" function="internal">
        <lane id=":Node5_2_0" index="0" speed="6.49" length="9.03" shape="3.32,-40.11 0.87,-39.76 -0.87,-38.71 -1.91,-36.95 -2.25,-34.50"/>
    </edge>
    <edge id=":Node5_3" function="internal">
        <lane id=":Node5_3_0" index="0" speed="13.89" length="14.40" shape="3.32,-40.11 -11.08,-40.11"/>
    </edge>
    <edge id=":Node5_4" function="internal">
        <lane id=":Node5_4_0" index="0" speed="13.89" length="14.40" shape="-11.08,-43.31 3.32,-43.31"/>
    </edge>
    <edge id=":Node5_5" function="internal">
        <lane id=":Node5_5_0" index="0" speed="8.03" length="4.05" shape="-11.08,-43.31 -7.24,-42.76 -7.09,-42.67"/>
    </edge>
    <edge id=":Node5_6" function="internal">
        <lane id=":Node5_6_0" index="0" speed="8.03" length="10.15" shape="-7.09,-42.67 -4.49,-41.11 -2.82,-38.35 -2.25,-34.50"/>
    </edge>
    <edge id=":Node6_0" function="internal">
        <lane id=":Node6_0_0" index="0" speed="3.90" length="2.58" shape="79.74,-38.51 79.64,-39.21 79.34,-39.71 78.84,-40.01 78.14,-40.11"/>
    </edge>
    <edge id=":Node6_1" function="internal">
        <lane id=":Node6_1_0" index="0" speed="6.08" length="7.74" shape="78.14,-43.31 80.24,-43.01 81.74,-42.11 82.64,-40.61 82.94,-38.51"/>
    </edge>

    <edge id="Node1-2-EB" from="Node1" to="Node2" priority="-1">
        <lane id="Node1-2-EB_0" index="0" speed="13.89" length="76.06" shape="-86.70,22.91 -10.63,22.91"/>
    </edge>
    <edge id="Node1-2-WB" from="Node2" to="Node1" priority="-1">
        <lane id="Node1-2-WB_0" index="0" speed="13.89" length="76.06" shape="-10.63,26.11 -86.70,26.11"/>
    </edge>
    <edge id="Node1-4-NB" from="Node4" to="Node1" priority="-1">
        <lane id="Node1-4-NB_0" index="0" speed="13.89" length="59.82" shape="-88.62,-38.50 -88.30,21.32"/>
    </edge>
    <edge id="Node1-4-SB" from="Node1" to="Node4" priority="-1">
        <lane id="Node1-4-SB_0" index="0" speed="13.89" length="59.82" shape="-91.50,21.34 -91.82,-38.48"/>
    </edge>
    <edge id="Node2-3-EB" from="Node2" to="Node3" priority="-1">
        <lane id="Node2-3-EB_0" index="0" speed="13.89" length="74.37" shape="3.77,22.91 78.14,22.91"/>
    </edge>
    <edge id="Node2-3-WB" from="Node3" to="Node2" priority="-1">
        <lane id="Node2-3-WB_0" index="0" speed="13.89" length="74.37" shape="78.14,26.11 3.77,26.11"/>
    </edge>
    <edge id="Node2-5-NB" from="Node5" to="Node2" priority="-1">
        <lane id="Node2-5-NB_0" index="0" speed="13.89" length="51.77" shape="-2.25,-34.50 -1.86,17.27"/>
    </edge>
    <edge id="Node2-5-SB" from="Node2" to="Node5" priority="-1">
        <lane id="Node2-5-SB_0" index="0" speed="13.89" length="51.77" shape="-5.06,17.30 -5.45,-34.47"/>
    </edge>
    <edge id="Node3-6-NB" from="Node6" to="Node3" priority="-1">
        <lane id="Node3-6-NB_0" index="0" speed="13.89" length="59.82" shape="82.94,-38.51 82.94,21.31"/>
    </edge>
    <edge id="Node3-6-SB" from="Node3" to="Node6" priority="-1">
        <lane id="Node3-6-SB_0" index="0" speed="13.89" length="59.82" shape="79.74,21.31 79.74,-38.51"/>
    </edge>
    <edge id="Node4-5-EB" from="Node4" to="Node5" priority="-1">
        <lane id="Node4-5-EB_0" index="0" speed="13.89" length="75.95" shape="-87.02,-43.31 -11.08,-43.31"/>
    </edge>
    <edge id="Node4-5-WB" from="Node5" to="Node4" priority="-1">
        <lane id="Node4-5-WB_0" index="0" speed="13.89" length="75.95" shape="-11.08,-40.11 -87.02,-40.11"/>
    </edge>
    <edge id="Node5-6-EB" from="Node5" to="Node6" priority="-1">
        <lane id="Node5-6-EB_0" index="0" speed="13.89" length="74.82" shape="3.32,-43.31 78.14,-43.31"/>
    </edge>
    <edge id="Node5-6-WB" from="Node6" to="Node5" priority="-1">
        <lane id="Node5-6-WB_0" index="0" speed="13.89" length="74.82" shape="78.14,-40.11 3.32,-40.11"/>
    </edge>

    <tlLogic id="Node2" type="static" programID="0" offset="0">
        <phase duration="10" state="GgrrGG"/>
        <phase duration="3"  state="yyrrGy"/>
        <phase duration="10" state="rrGGGr"/>
        <phase duration="3"  state="rryyGr"/>
    </tlLogic>
    <tlLogic id="Node5" type="static" programID="0" offset="0">
        <phase duration="30" state="rrGGGg"/>
        <phase duration="3"  state="rrGyyy"/>
        <phase duration="10" state="GGGrrr"/>
        <phase duration="3"  state="yyGrrr"/>
    </tlLogic>

    <junction id="Node1" type="priority" x="-89.88" y="24.51" incLanes="Node1-2-WB_0 Node1-4-NB_0" intLanes=":Node1_0_0 :Node1_1_0" shape="-86.70,27.71 -86.70,21.31 -93.10,21.34 -92.37,24.88 -91.48,26.12 -90.24,27.00 -88.64,27.53">
        <request index="0" response="00" foes="00" cont="0"/>
        <request index="1" response="00" foes="00" cont="0"/>
    </junction>
    <junction id="Node2" type="traffic_light" x="-3.41" y="24.51" incLanes="Node2-3-WB_0 Node2-5-NB_0 Node1-2-EB_0" intLanes=":Node2_0_0 :Node2_6_0 :Node2_2_0 :Node2_3_0 :Node2_4_0 :Node2_5_0" shape="3.77,27.71 3.77,21.31 1.54,20.86 0.76,20.30 0.20,19.51 -0.14,18.50 -0.26,17.26 -6.66,17.31 -7.09,19.53 -7.64,20.31 -8.41,20.87 -9.41,21.20 -10.63,21.31 -10.63,27.71">
        <request index="0" response="000000" foes="001000" cont="0"/>
        <request index="1" response="110000" foes="111000" cont="1"/>
        <request index="2" response="100000" foes="100000" cont="0"/>
        <request index="3" response="100011" foes="100011" cont="0"/>
        <request index="4" response="000000" foes="000010" cont="0"/>
        <request index="5" response="000000" foes="001110" cont="0"/>
    </junction>
    <junction id="Node3" type="priority" x="81.34" y="24.51" incLanes="Node3-6-NB_0 Node2-3-EB_0" intLanes=":Node3_0_0 :Node3_1_0" shape="84.54,21.31 78.14,21.31 78.14,27.71 81.70,27.00 82.94,26.11 83.83,24.87 84.36,23.27">
        <request index="0" response="00" foes="00" cont="0"/>
        <request index="1" response="00" foes="00" cont="0"/>
    </junction>
    <junction id="Node4" type="priority" x="-90.24" y="-41.71" incLanes="Node1-4-SB_0 Node4-5-WB_0" intLanes=":Node4_0_0 :Node4_1_0" shape="-93.42,-38.48 -87.02,-38.51 -87.02,-44.91 -90.59,-44.20 -91.84,-43.30 -92.73,-42.05 -93.25,-40.44">
        <request index="0" response="00" foes="00" cont="0"/>
        <request index="1" response="00" foes="00" cont="0"/>
    </junction>
    <junction id="Node5" type="traffic_light" x="-3.90" y="-41.71" incLanes="Node2-5-SB_0 Node5-6-WB_0 Node4-5-EB_0" intLanes=":Node5_0_0 :Node5_1_0 :Node5_2_0 :Node5_3_0 :Node5_4_0 :Node5_6_0" shape="-7.05,-34.46 -0.65,-34.51 -0.22,-36.73 0.33,-37.51 1.10,-38.07 2.10,-38.40 3.32,-38.51 3.32,-44.91 -11.08,-44.91 -11.08,-38.51 -8.85,-38.06 -8.07,-37.50 -7.51,-36.71 -7.17,-35.70">
        <request index="0" response="001000" foes="001000" cont="0"/>
        <request index="1" response="111000" foes="111000" cont="0"/>
        <request index="2" response="000000" foes="100000" cont="0"/>
        <request index="3" response="000000" foes="100011" cont="0"/>
        <request index="4" response="000000" foes="000010" cont="0"/>
        <request index="5" response="001100" foes="001110" cont="1"/>
    </junction>
    <junction id="Node6" type="priority" x="81.34" y="-41.71" incLanes="Node3-6-SB_0 Node5-6-EB_0" intLanes=":Node6_0_0 :Node6_1_0" shape="78.14,-38.51 84.54,-38.51 83.83,-42.07 82.94,-43.31 81.70,-44.20 80.10,-44.73 78.14,-44.91">
        <request index="0" response="00" foes="00" cont="0"/>
        <request index="1" response="00" foes="00" cont="0"/>
    </junction>

    <junction id=":Node2_6_0" type="internal" x="-0.22" y="25.47" incLanes=":Node2_1_0 Node1-2-EB_0" intLanes=":Node2_3_0 :Node2_4_0 :Node2_5_0"/>
    <junction id=":Node5_6_0" type="internal" x="-7.09" y="-42.67" incLanes=":Node5_5_0 Node5-6-WB_0" intLanes=":Node5_1_0 :Node5_2_0 :Node5_3_0"/>

    <connection from="Node1-2-EB" to="Node2-5-SB" fromLane="0" toLane="0" via=":Node2_4_0" tl="Node2" linkIndex="4" dir="r" state="O"/>
    <connection from="Node1-2-EB" to="Node2-3-EB" fromLane="0" toLane="0" via=":Node2_5_0" tl="Node2" linkIndex="5" dir="s" state="O"/>
    <connection from="Node1-2-WB" to="Node1-4-SB" fromLane="0" toLane="0" via=":Node1_0_0" dir="l" state="M"/>
    <connection from="Node1-4-NB" to="Node1-2-EB" fromLane="0" toLane="0" via=":Node1_1_0" dir="r" state="M"/>
    <connection from="Node1-4-SB" to="Node4-5-EB" fromLane="0" toLane="0" via=":Node4_0_0" dir="l" state="M"/>
    <connection from="Node2-3-EB" to="Node3-6-SB" fromLane="0" toLane="0" via=":Node3_1_0" dir="r" state="M"/>
    <connection from="Node2-3-WB" to="Node1-2-WB" fromLane="0" toLane="0" via=":Node2_0_0" tl="Node2" linkIndex="0" dir="s" state="O"/>
    <connection from="Node2-3-WB" to="Node2-5-SB" fromLane="0" toLane="0" via=":Node2_1_0" tl="Node2" linkIndex="1" dir="l" state="o"/>
    <connection from="Node2-5-NB" to="Node2-3-EB" fromLane="0" toLane="0" via=":Node2_2_0" tl="Node2" linkIndex="2" dir="r" state="o"/>
    <connection from="Node2-5-NB" to="Node1-2-WB" fromLane="0" toLane="0" via=":Node2_3_0" tl="Node2" linkIndex="3" dir="l" state="o"/>
    <connection from="Node2-5-SB" to="Node4-5-WB" fromLane="0" toLane="0" via=":Node5_0_0" tl="Node5" linkIndex="0" dir="r" state="o"/>
    <connection from="Node2-5-SB" to="Node5-6-EB" fromLane="0" toLane="0" via=":Node5_1_0" tl="Node5" linkIndex="1" dir="l" state="o"/>
    <connection from="Node3-6-NB" to="Node2-3-WB" fromLane="0" toLane="0" via=":Node3_0_0" dir="l" state="M"/>
    <connection from="Node3-6-SB" to="Node5-6-WB" fromLane="0" toLane="0" via=":Node6_0_0" dir="r" state="M"/>
    <connection from="Node4-5-EB" to="Node5-6-EB" fromLane="0" toLane="0" via=":Node5_4_0" tl="Node5" linkIndex="4" dir="s" state="O"/>
    <connection from="Node4-5-EB" to="Node2-5-NB" fromLane="0" toLane="0" via=":Node5_5_0" tl="Node5" linkIndex="5" dir="l" state="o"/>
    <connection from="Node4-5-WB" to="Node1-4-NB" fromLane="0" toLane="0" via=":Node4_1_0" dir="r" state="M"/>
    <connection from="Node5-6-EB" to="Node3-6-NB" fromLane="0" toLane="0" via=":Node6_1_0" dir="l" state="M"/>
    <connection from="Node5-6-WB" to="Node2-5-NB" fromLane="0" toLane="0" via=":Node5_2_0" tl="Node5" linkIndex="2" dir="r" state="O"/>
    <connection from="Node5-6-WB" to="Node4-5-WB" fromLane="0" toLane="0" via=":Node5_3_0" tl="Node5" linkIndex="3" dir="s" state="O"/>

    <connection from=":Node1_0" to="Node1-4-SB" fromLane="0" toLane="0" dir="l" state="M"/>
    <connection from=":Node1_1" to="Node1-2-EB" fromLane="0" toLane="0" dir="r" state="M"/>
    <connection from=":Node2_0" to="Node1-2-WB" fromLane="0" toLane="0" dir="s" state="M"/>
    <connection from=":Node2_1" to="Node2-5-SB" fromLane="0" toLane="0" via=":Node2_6_0" dir="l" state="m"/>
    <connection from=":Node2_6" to="Node2-5-SB" fromLane="0" toLane="0" dir="l" state="M"/>
    <connection from=":Node2_2" to="Node2-3-EB" fromLane="0" toLane="0" dir="r" state="M"/>
    <connection from=":Node2_3" to="Node1-2-WB" fromLane="0" toLane="0" dir="l" state="M"/>
    <connection from=":Node2_4" to="Node2-5-SB" fromLane="0" toLane="0" dir="r" state="M"/>
    <connection from=":Node2_5" to="Node2-3-EB" fromLane="0" toLane="0" dir="s" state="M"/>
    <connection from=":Node3_0" to="Node2-3-WB" fromLane="0" toLane="0" dir="l" state="M"/>
    <connection from=":Node3_1" to="Node3-6-SB" fromLane="0" toLane="0" dir="r" state="M"/>
    <connection from=":Node4_0" to="Node4-5-EB" fromLane="0" toLane="0" dir="l" state="M"/>
    <connection from=":Node4_1" to="Node1-4-NB" fromLane="0" toLane="0" dir="r" state="M"/>
    <connection from=":Node5_0" to="Node4-5-WB" fromLane="0" toLane="0" dir="r" state="M"/>
    <connection from=":Node5_1" to="Node5-6-EB" fromLane="0" toLane="0" dir="l" state="M"/>
    <connection from=":Node5_2" to="Node2-5-NB" fromLane="0" toLane="0" dir="r" state="M"/>
    <connection from=":Node5_3" to="Node4-5-WB" fromLane="0" toLane="0" dir="s" state="M"/>
    <connection from=":Node5_4" to="Node5-6-EB" fromLane="0" toLane="0" dir="s" state="M"/>
    <connection from=":Node5_5" to="Node2-5-NB" fromLane="0" toLane="0" via=":Node5_6_0" dir="l" state="m"/>
    <connection from=":Node5_6" to="Node2-5-NB" fromLane="0" toLane="0" dir="l" state="M"/>
    <connection from=":Node6_0" to="Node5-6-WB" fromLane="0" toLane="0" dir="r" state="M"/>
    <connection from=":Node6_1" to="Node3-6-NB" fromLane="0" toLane="0" dir="l" state="M"/>

</net>
