<?xml version="1.0" encoding="UTF-8"?>

<!-- generated on 2025-11-20 07:40:01 by Eclipse SUMO netedit Version 1.24.0
-->

<additional xmlns:xsi="http://www.w3.org/2001/XMLSchema-instance" xsi:noNamespaceSchemaLocation="http://sumo.dlr.de/xsd/additional_file.xsd">
    <!-- Detectors -->
    <laneAreaDetector id="Node1_2_EB_0" lane="Node1-2-EB_0" pos="149.62" length="10.00" period="300.00" file="e2_6.xml"/>
    <laneAreaDetector id="Node1_2_EB_1" lane="Node1-2-EB_1" pos="149.32" length="10.00" period="300.00" file="e2_0.xml"/>
    <laneAreaDetector id="Node1_2_EB_2" lane="Node1-2-EB_2" pos="149.46" length="10.00" period="300.00" file="e2_1.xml"/>
    <laneAreaDetector id="Node2_7_SB_0" lane="Node2-7-SB_0" pos="84.73" length="10.00" period="300.00" file="e2_3.xml"/>
    <laneAreaDetector id="Node2_7_SB_1" lane="Node2-7-SB_1" pos="84.57" length="10.00" period="300.00" file="e2_2.xml"/>
    <laneAreaDetector id="Node2_7_SB_2" lane="Node2-7-SB_2" pos="84.54" length="10.00" period="300.00" file="e2_4.xml"/>
</additional>
