<?xml version="1.0" encoding="UTF-8"?>

<!-- generated on 2025-11-20 09:37:09 by Eclipse SUMO netedit Version 1.24.0
<neteditConfiguration xmlns:xsi="http://www.w3.org/2001/XMLSchema-instance" xsi:noNamespaceSchemaLocation="http://sumo.dlr.de/xsd/neteditConfiguration.xsd">

    <input>
        <sumocfg-file value="C:\Users\ZNDeu\Downloads\RL\RL.sumocfg"/>
        <additional-files value="C:\Users\ZNDeu\Downloads\RL\RL.add.xml"/>
        <route-files value="C:\Users\ZNDeu\Downloads\RL\RL.rou.xml"/>
        <sumo-net-file value="C:\Users\ZNDeu\Downloads\RL\RL.net.xml"/>
    </input>

    <output>
        <output-file value="C:\Users\ZNDeu\Downloads\RL\RL.net.xml"/>
    </output>

    <processing>
        <offset.disable-normalization value="true"/>
    </processing>

    <junctions>
        <no-turnarounds value="true"/>
    </junctions>

    <netedit>
        <new-network value="false"/>
    </netedit>

</neteditConfiguration>
-->

<net version="1.20" junctionCornerDetail="5" limitTurnSpeed="5.50" xmlns:xsi="http://www.w3.org/2001/XMLSchema-instance" xsi:noNamespaceSchemaLocation="http://sumo.dlr.de/xsd/net_file.xsd">

    <location netOffset="0.00,0.00" convBoundary="-119.88,-130.63,271.20,123.28" origBoundary="10000000000.00,10000000000.00,-10000000000.00,-10000000000.00" projParameter="!"/>

    <edge id=":Node1_0" function="internal">
        <lane id=":Node1_0_0" index="0" speed="11.12" length="28.18" shape="-108.61,11.64 -116.25,10.58 -121.74,7.33 -125.08,1.90 -126.27,-5.72"/>
        <lane id=":Node1_0_1" index="1" speed="10.10" length="23.06" shape="-108.62,8.44 -114.87,7.57 -119.36,4.92 -122.10,0.47 -123.07,-5.77"/>
        <lane id=":Node1_0_2" index="2" speed="8.96" length="17.94" shape="-108.63,5.24 -113.49,4.57 -116.99,2.50 -119.11,-0.96 -119.87,-5.81"/>
    </edge>
    <edge id=":Node1_3" function="internal">
        <lane id=":Node1_3_0" index="0" speed="3.90" length="2.56" shape="-110.27,-5.94 -110.16,-5.24 -109.86,-4.75 -109.36,-4.45 -108.67,-4.36"/>
        <lane id=":Node1_3_1" index="1" speed="6.08" length="7.69" shape="-113.47,-5.89 -113.15,-3.82 -112.24,-2.33 -110.74,-1.45 -108.65,-1.16"/>
        <lane id=":Node1_3_2" index="2" speed="7.66" length="12.81" shape="-116.67,-5.85 -116.13,-2.39 -114.61,0.08 -112.12,1.56 -108.64,2.04"/>
    </edge>
    <edge id=":Node2_0" function="internal">
        <lane id=":Node2_0_0" index="0" speed="6.55" length="9.14" shape="70.87,16.62 70.50,14.17 69.42,12.42 67.63,11.37 65.13,11.03"/>
    </edge>
    <edge id=":Node2_1" function="internal">
        <lane id=":Node2_1_0" index="0" speed="13.89" length="27.25" shape="70.87,16.62 70.61,-10.61"/>
        <lane id=":Node2_1_1" index="1" speed="13.89" length="27.25" shape="74.07,16.60 73.81,-10.65"/>
        <lane id=":Node2_1_2" index="2" speed="13.89" length="27.25" shape="77.27,16.58 77.01,-10.69"/>
    </edge>
    <edge id=":Node2_4" function="internal">
        <lane id=":Node2_4_0" index="0" speed="10.37" length="4.90" shape="77.27,16.58 77.94,11.72"/>
    </edge>
    <edge id=":Node2_20" function="internal">
        <lane id=":Node2_20_0" index="0" speed="10.37" length="19.60" shape="77.94,11.72 78.18,9.93 81.00,5.16 85.73,2.28 92.37,1.28"/>
    </edge>
    <edge id=":Node2_5" function="internal">
        <lane id=":Node2_5_0" index="0" speed="6.51" length="9.03" shape="92.44,10.88 89.99,11.25 88.25,12.31 87.21,14.07 86.87,16.52"/>
    </edge>
    <edge id=":Node2_6" function="internal">
        <lane id=":Node2_6_0" index="0" speed="13.89" length="27.30" shape="92.44,10.88 65.13,11.03"/>
        <lane id=":Node2_6_1" index="1" speed="13.89" length="27.30" shape="92.41,7.68 65.12,7.83"/>
        <lane id=":Node2_6_2" index="2" speed="13.89" length="27.30" shape="92.39,4.48 65.10,4.63"/>
    </edge>
    <edge id=":Node2_9" function="internal">
        <lane id=":Node2_9_0" index="0" speed="10.40" length="5.05" shape="92.39,4.48 87.39,3.80"/>
    </edge>
    <edge id=":Node2_21" function="internal">
        <lane id=":Node2_21_0" index="0" speed="10.40" length="19.55" shape="87.39,3.80 85.74,3.57 80.96,0.74 78.05,-4.01 77.01,-10.69"/>
    </edge>
    <edge id=":Node2_10" function="internal">
        <lane id=":Node2_10_0" index="0" speed="6.57" length="9.19" shape="86.61,-10.81 87.00,-8.31 88.08,-6.52 89.85,-5.46 92.32,-5.12"/>
    </edge>
    <edge id=":Node2_11" function="internal">
        <lane id=":Node2_11_0" index="0" speed="13.89" length="27.31" shape="86.61,-10.81 86.87,16.52"/>
        <lane id=":Node2_11_1" index="1" speed="13.89" length="27.31" shape="83.41,-10.77 83.67,16.54"/>
        <lane id=":Node2_11_2" index="2" speed="13.89" length="27.31" shape="80.21,-10.73 80.47,16.56"/>
    </edge>
    <edge id=":Node2_14" function="internal">
        <lane id=":Node2_14_0" index="0" speed="10.35" length="5.13" shape="80.21,-10.73 79.55,-5.65"/>
    </edge>
    <edge id=":Node2_22" function="internal">
        <lane id=":Node2_22_0" index="0" speed="10.35" length="19.49" shape="79.55,-5.65 79.34,-4.03 76.53,0.76 71.79,3.65 65.10,4.63"/>
    </edge>
    <edge id=":Node2_15" function="internal">
        <lane id=":Node2_15_0" index="0" speed="6.49" length="9.03" shape="65.07,-4.97 67.52,-5.33 69.26,-6.39 70.29,-8.15 70.61,-10.61"/>
    </edge>
    <edge id=":Node2_16" function="internal">
        <lane id=":Node2_16_0" index="0" speed="13.89" length="27.26" shape="65.07,-4.97 92.32,-5.12"/>
        <lane id=":Node2_16_1" index="1" speed="13.89" length="27.26" shape="65.08,-1.77 92.34,-1.92"/>
        <lane id=":Node2_16_2" index="2" speed="13.89" length="27.26" shape="65.09,1.43 92.37,1.28"/>
    </edge>
    <edge id=":Node2_19" function="internal">
        <lane id=":Node2_19_0" index="0" speed="10.39" length="4.98" shape="65.09,1.43 70.03,2.11"/>
    </edge>
    <edge id=":Node2_23" function="internal">
        <lane id=":Node2_23_0" index="0" speed="10.39" length="19.61" shape="70.03,2.11 71.79,2.35 76.58,5.18 79.48,9.92 80.47,16.56"/>
    </edge>
    <edge id=":Node3_0" function="internal">
        <lane id=":Node3_0_0" index="0" speed="11.12" length="28.18" shape="278.88,-7.90 277.77,-0.26 274.49,5.21 269.03,8.51 261.41,9.66"/>
        <lane id=":Node3_0_1" index="1" speed="10.10" length="23.06" shape="275.68,-7.90 274.77,-1.66 272.09,2.81 267.62,5.52 261.38,6.46"/>
        <lane id=":Node3_0_2" index="2" speed="8.96" length="17.93" shape="272.48,-7.91 271.77,-3.06 269.68,0.42 266.21,2.53 261.36,3.26"/>
    </edge>
    <edge id=":Node3_3" function="internal">
        <lane id=":Node3_3_0" index="0" speed="3.90" length="2.56" shape="261.29,-6.34 261.98,-6.45 262.48,-6.75 262.78,-7.24 262.88,-7.94"/>
        <lane id=":Node3_3_1" index="1" speed="6.08" length="7.69" shape="261.31,-3.14 263.39,-3.46 264.88,-4.36 265.78,-5.85 266.08,-7.93"/>
        <lane id=":Node3_3_2" index="2" speed="7.66" length="12.81" shape="261.34,0.06 264.80,-0.46 267.28,-1.97 268.77,-4.45 269.28,-7.92"/>
    </edge>
    <edge id=":Node4_0" function="internal">
        <lane id=":Node4_0_0" index="0" speed="11.12" length="28.29" shape="-127.76,-117.49 -126.76,-125.17 -123.55,-130.71 -118.12,-134.09 -110.47,-135.32"/>
        <lane id=":Node4_0_1" index="1" speed="10.10" length="23.15" shape="-124.56,-117.53 -123.74,-123.82 -121.12,-128.34 -116.67,-131.11 -110.41,-132.12"/>
        <lane id=":Node4_0_2" index="2" speed="8.96" length="18.01" shape="-121.36,-117.57 -120.73,-122.46 -118.68,-125.98 -115.22,-128.14 -110.36,-128.92"/>
    </edge>
    <edge id=":Node4_3" function="internal">
        <lane id=":Node4_3_0" index="0" speed="3.90" length="2.57" shape="-110.19,-119.32 -110.88,-119.21 -111.38,-118.90 -111.67,-118.40 -111.76,-117.70"/>
        <lane id=":Node4_3_1" index="1" speed="6.08" length="7.72" shape="-110.24,-122.52 -112.33,-122.18 -113.81,-121.26 -114.69,-119.75 -114.96,-117.66"/>
        <lane id=":Node4_3_2" index="2" speed="7.66" length="12.86" shape="-110.30,-125.72 -113.78,-125.16 -116.25,-123.62 -117.71,-121.11 -118.16,-117.61"/>
    </edge>
    <edge id=":Node5_0" function="internal">
        <lane id=":Node5_0_0" index="0" speed="6.53" length="9.14" shape="69.23,-116.75 68.85,-119.25 67.77,-121.03 66.01,-122.07 63.55,-122.39"/>
        <lane id=":Node5_0_1" index="1" speed="8.02" length="14.32" shape="72.43,-116.79 71.83,-120.70 70.14,-123.47 67.36,-125.10 63.49,-125.59"/>
    </edge>
    <edge id=":Node5_2" function="internal">
        <lane id=":Node5_2_0" index="0" speed="11.34" length="29.95" shape="72.43,-116.79 73.49,-124.95 76.91,-130.76 82.70,-134.23 90.85,-135.36"/>
        <lane id=":Node5_2_1" index="1" speed="10.34" length="24.72" shape="75.63,-116.83 76.50,-123.57 79.33,-128.37 84.11,-131.23 90.84,-132.16"/>
    </edge>
    <edge id=":Node5_4" function="internal">
        <lane id=":Node5_4_0" index="0" speed="6.47" length="9.03" shape="90.79,-122.56 88.33,-122.22 86.58,-121.17 85.55,-119.42 85.23,-116.96"/>
    </edge>
    <edge id=":Node5_5" function="internal">
        <lane id=":Node5_5_0" index="0" speed="13.89" length="27.31" shape="90.79,-122.56 63.55,-122.39"/>
        <lane id=":Node5_5_1" index="1" speed="13.89" length="27.31" shape="90.80,-125.76 63.49,-125.59"/>
        <lane id=":Node5_5_2" index="2" speed="13.89" length="27.31" shape="90.82,-128.96 63.44,-128.79"/>
    </edge>
    <edge id=":Node5_8" function="internal">
        <lane id=":Node5_8_0" index="0" speed="13.89" length="27.53" shape="63.27,-138.39 90.87,-138.56"/>
        <lane id=":Node5_8_1" index="1" speed="13.89" length="27.53" shape="63.32,-135.19 90.85,-135.36"/>
        <lane id=":Node5_8_2" index="2" speed="13.89" length="27.53" shape="63.38,-131.99 90.84,-132.16"/>
    </edge>
    <edge id=":Node5_11" function="internal">
        <lane id=":Node5_11_0" index="0" speed="10.90" length="6.59" shape="63.38,-131.99 69.94,-131.32"/>
        <lane id=":Node5_11_1" index="1" speed="10.38" length="5.39" shape="63.38,-131.99 68.73,-131.31"/>
    </edge>
    <edge id=":Node5_13" function="internal">
        <lane id=":Node5_13_0" index="0" speed="10.90" length="20.72" shape="69.94,-131.32 71.46,-131.17 77.27,-128.38 80.79,-123.63 82.03,-116.91"/>
        <lane id=":Node5_13_1" index="0" speed="10.38" length="19.28" shape="68.73,-131.31 70.06,-131.14 74.87,-128.34 77.79,-123.59 78.83,-116.87"/>
    </edge>
    <edge id=":Node6_0" function="internal">
        <lane id=":Node6_0_0" index="0" speed="11.12" length="28.33" shape="261.67,-137.64 269.35,-136.50 274.82,-133.18 278.10,-127.68 279.18,-119.99"/>
        <lane id=":Node6_0_1" index="1" speed="10.10" length="23.18" shape="261.65,-134.44 267.93,-133.51 272.41,-130.79 275.10,-126.29 275.98,-120.00"/>
        <lane id=":Node6_0_2" index="2" speed="8.96" length="18.03" shape="261.64,-131.24 266.52,-130.51 270.01,-128.40 272.09,-124.90 272.78,-120.01"/>
    </edge>
    <edge id=":Node6_3" function="internal">
        <lane id=":Node6_3_0" index="0" speed="3.90" length="2.58" shape="263.18,-120.03 263.08,-120.73 262.78,-121.23 262.28,-121.53 261.58,-121.64"/>
        <lane id=":Node6_3_1" index="1" speed="6.08" length="7.73" shape="266.38,-120.02 266.08,-122.12 265.19,-123.62 263.70,-124.53 261.60,-124.84"/>
        <lane id=":Node6_3_2" index="2" speed="7.66" length="12.88" shape="269.58,-120.02 269.09,-123.51 267.60,-126.01 265.11,-127.52 261.62,-128.04"/>
    </edge>

    <edge id="Node1-2-EB" from="Node1" to="Node2" priority="-1">
        <lane id="Node1-2-EB_0" index="0" speed="13.89" length="173.74" shape="-108.67,-4.36 65.07,-4.97"/>
        <lane id="Node1-2-EB_1" index="1" speed="13.89" length="173.74" shape="-108.65,-1.16 65.08,-1.77"/>
        <lane id="Node1-2-EB_2" index="2" speed="13.89" length="173.74" shape="-108.64,2.04 65.09,1.43"/>
    </edge>
    <edge id="Node1-2-WB" from="Node2" to="Node1" priority="-1">
        <lane id="Node1-2-WB_0" index="0" speed="13.89" length="173.74" shape="65.13,11.03 -108.61,11.64"/>
        <lane id="Node1-2-WB_1" index="1" speed="13.89" length="173.74" shape="65.12,7.83 -108.62,8.44"/>
        <lane id="Node1-2-WB_2" index="2" speed="13.89" length="173.74" shape="65.10,4.63 -108.63,5.24"/>
    </edge>
    <edge id="Node1-4-NB" from="Node4" to="Node1" priority="-1">
        <lane id="Node1-4-NB_0" index="0" speed="13.89" length="111.77" shape="-111.76,-117.70 -110.27,-5.94"/>
        <lane id="Node1-4-NB_1" index="1" speed="13.89" length="111.77" shape="-114.96,-117.66 -113.47,-5.89"/>
        <lane id="Node1-4-NB_2" index="2" speed="13.89" length="111.77" shape="-118.16,-117.61 -116.67,-5.85"/>
    </edge>
    <edge id="Node1-4-SB" from="Node1" to="Node4" priority="-1">
        <lane id="Node1-4-SB_0" index="0" speed="13.89" length="111.77" shape="-126.27,-5.72 -127.76,-117.49"/>
        <lane id="Node1-4-SB_1" index="1" speed="13.89" length="111.77" shape="-123.07,-5.77 -124.56,-117.53"/>
        <lane id="Node1-4-SB_2" index="2" speed="13.89" length="111.77" shape="-119.87,-5.81 -121.36,-117.57"/>
    </edge>
    <edge id="Node2-3-EB" from="Node2" to="Node3" priority="-1">
        <lane id="Node2-3-EB_0" index="0" speed="13.89" length="168.97" shape="92.32,-5.12 261.29,-6.34"/>
        <lane id="Node2-3-EB_1" index="1" speed="13.89" length="168.97" shape="92.34,-1.92 261.31,-3.14"/>
        <lane id="Node2-3-EB_2" index="2" speed="13.89" length="168.97" shape="92.37,1.28 261.34,0.06"/>
    </edge>
    <edge id="Node2-3-WB" from="Node3" to="Node2" priority="-1">
        <lane id="Node2-3-WB_0" index="0" speed="13.89" length="168.97" shape="261.41,9.66 92.44,10.88"/>
        <lane id="Node2-3-WB_1" index="1" speed="13.89" length="168.97" shape="261.38,6.46 92.41,7.68"/>
        <lane id="Node2-3-WB_2" index="2" speed="13.89" length="168.97" shape="261.36,3.26 92.39,4.48"/>
    </edge>
    <edge id="Node2-5-NB" from="Node5" to="Node2" priority="-1">
        <lane id="Node2-5-NB_0" index="0" speed="13.89" length="106.15" shape="85.23,-116.96 86.61,-10.81"/>
        <lane id="Node2-5-NB_1" index="1" speed="13.89" length="106.15" shape="82.03,-116.91 83.41,-10.77"/>
        <lane id="Node2-5-NB_2" index="2" speed="13.89" length="106.15" shape="78.83,-116.87 80.21,-10.73"/>
    </edge>
    <edge id="Node2-5-SB" from="Node2" to="Node5" priority="-1">
        <lane id="Node2-5-SB_0" index="0" speed="13.89" length="106.15" shape="70.61,-10.61 69.23,-116.75"/>
        <lane id="Node2-5-SB_1" index="1" speed="13.89" length="106.15" shape="73.81,-10.65 72.43,-116.79"/>
        <lane id="Node2-5-SB_2" index="2" speed="13.89" length="106.15" shape="77.01,-10.69 75.63,-116.83"/>
    </edge>
    <edge id="Node2-7-NB" from="Node2" to="Node7" priority="-1">
        <lane id="Node2-7-NB_0" index="0" speed="13.89" length="106.71" shape="86.87,16.52 87.53,123.23"/>
        <lane id="Node2-7-NB_1" index="1" speed="13.89" length="106.71" shape="83.67,16.54 84.33,123.25"/>
        <lane id="Node2-7-NB_2" index="2" speed="13.89" length="106.71" shape="80.47,16.56 81.13,123.27"/>
    </edge>
    <edge id="Node2-7-SB" from="Node7" to="Node2" priority="-1">
        <lane id="Node2-7-SB_0" index="0" speed="13.89" length="106.71" shape="71.53,123.33 70.87,16.62"/>
        <lane id="Node2-7-SB_1" index="1" speed="13.89" length="106.71" shape="74.73,123.31 74.07,16.60"/>
        <lane id="Node2-7-SB_2" index="2" speed="13.89" length="106.71" shape="77.93,123.29 77.27,16.58"/>
    </edge>
    <edge id="Node3-6-NB" from="Node6" to="Node3" priority="-1">
        <lane id="Node3-6-NB_0" index="0" speed="13.89" length="112.09" shape="279.18,-119.99 278.88,-7.90"/>
        <lane id="Node3-6-NB_1" index="1" speed="13.89" length="112.09" shape="275.98,-120.00 275.68,-7.90"/>
        <lane id="Node3-6-NB_2" index="2" speed="13.89" length="112.09" shape="272.78,-120.01 272.48,-7.91"/>
    </edge>
    <edge id="Node3-6-SB" from="Node3" to="Node6" priority="-1">
        <lane id="Node3-6-SB_0" index="0" speed="13.89" length="112.09" shape="262.88,-7.94 263.18,-120.03"/>
        <lane id="Node3-6-SB_1" index="1" speed="13.89" length="112.09" shape="266.08,-7.93 266.38,-120.02"/>
        <lane id="Node3-6-SB_2" index="2" speed="13.89" length="112.09" shape="269.28,-7.92 269.58,-120.02"/>
    </edge>
    <edge id="Node4-5-EB" from="Node4" to="Node5" priority="-1">
        <lane id="Node4-5-EB_0" index="0" speed="13.89" length="173.76" shape="-110.47,-135.32 63.27,-138.39"/>
        <lane id="Node4-5-EB_1" index="1" speed="13.89" length="173.76" shape="-110.41,-132.12 63.32,-135.19"/>
        <lane id="Node4-5-EB_2" index="2" speed="13.89" length="173.76" shape="-110.36,-128.92 63.38,-131.99"/>
    </edge>
    <edge id="Node4-5-WB" from="Node5" to="Node4" priority="-1">
        <lane id="Node4-5-WB_0" index="0" speed="13.89" length="173.76" shape="63.55,-122.39 -110.19,-119.32"/>
        <lane id="Node4-5-WB_1" index="1" speed="13.89" length="173.76" shape="63.49,-125.59 -110.24,-122.52"/>
        <lane id="Node4-5-WB_2" index="2" speed="13.89" length="173.76" shape="63.44,-128.79 -110.30,-125.72"/>
    </edge>
    <edge id="Node5-6-EB" from="Node5" to="Node6" priority="-1">
        <lane id="Node5-6-EB_0" index="0" speed="13.89" length="170.80" shape="90.87,-138.56 261.67,-137.64"/>
        <lane id="Node5-6-EB_1" index="1" speed="13.89" length="170.80" shape="90.85,-135.36 261.65,-134.44"/>
        <lane id="Node5-6-EB_2" index="2" speed="13.89" length="170.80" shape="90.84,-132.16 261.64,-131.24"/>
    </edge>
    <edge id="Node5-6-WB" from="Node6" to="Node5" priority="-1">
        <lane id="Node5-6-WB_0" index="0" speed="13.89" length="170.80" shape="261.58,-121.64 90.79,-122.56"/>
        <lane id="Node5-6-WB_1" index="1" speed="13.89" length="170.80" shape="261.60,-124.84 90.80,-125.76"/>
        <lane id="Node5-6-WB_2" index="2" speed="13.89" length="170.80" shape="261.62,-128.04 90.82,-128.96"/>
    </edge>

    <tlLogic id="Node2" type="static" programID="0" offset="0">
        <phase duration="42" state="rrrrrGGGGgrrrrrGGGGg"/>
        <phase duration="3"  state="rrrrryyyyyrrrrryyyyy"/>
        <phase duration="42" state="GGGGgrrrrrGGGGgrrrrr"/>
        <phase duration="3"  state="yyyyyrrrrryyyyyrrrrr"/>
    </tlLogic>
    <tlLogic id="Node5" type="static" programID="0" offset="0">
        <phase duration="10" state="rrrrGGGGGGGgg"/>
        <phase duration="3"  state="rrrrGyyyyyyyy"/>
        <phase duration="42" state="GGGGGrrrrrrrr"/>
        <phase duration="3"  state="yyyyGrrrrrrrr"/>
    </tlLogic>

    <junction id="Node1" type="priority" x="-118.14" y="3.68" incLanes="Node1-2-WB_0 Node1-2-WB_1 Node1-2-WB_2 Node1-4-NB_0 Node1-4-NB_1 Node1-4-NB_2" intLanes=":Node1_0_0 :Node1_0_1 :Node1_0_2 :Node1_3_0 :Node1_3_1 :Node1_3_2" shape="-108.60,13.24 -108.67,-5.96 -127.87,-5.70 -127.26,0.10 -125.62,4.85 -122.93,8.54 -119.20,11.17 -114.42,12.73">
        <request index="0" response="000000" foes="000000" cont="0"/>
        <request index="1" response="000000" foes="000000" cont="0"/>
        <request index="2" response="000000" foes="000000" cont="0"/>
        <request index="3" response="000000" foes="000000" cont="0"/>
        <request index="4" response="000000" foes="000000" cont="0"/>
        <request index="5" response="000000" foes="000000" cont="0"/>
    </junction>
    <junction id="Node2" type="traffic_light" x="78.79" y="2.98" incLanes="Node2-7-SB_0 Node2-7-SB_1 Node2-7-SB_2 Node2-3-WB_0 Node2-3-WB_1 Node2-3-WB_2 Node2-5-NB_0 Node2-5-NB_1 Node2-5-NB_2 Node1-2-EB_0 Node1-2-EB_1 Node1-2-EB_2" intLanes=":Node2_0_0 :Node2_1_0 :Node2_1_1 :Node2_1_2 :Node2_20_0 :Node2_5_0 :Node2_6_0 :Node2_6_1 :Node2_6_2 :Node2_21_0 :Node2_10_0 :Node2_11_0 :Node2_11_1 :Node2_11_2 :Node2_22_0 :Node2_15_0 :Node2_16_0 :Node2_16_1 :Node2_16_2 :Node2_23_0" shape="69.27,16.63 88.47,16.51 88.90,14.28 89.45,13.50 90.23,12.94 91.23,12.60 92.45,12.48 92.31,-6.72 90.06,-7.16 89.26,-7.73 88.69,-8.54 88.34,-9.57 88.21,-10.84 69.01,-10.59 68.60,-8.36 68.05,-7.58 67.28,-7.02 66.29,-6.69 65.06,-6.57 65.13,12.63 67.42,13.07 68.23,13.62 68.80,14.40 69.15,15.40">
        <request index="0"  response="00000000000111000000" foes="00000000000111000000" cont="0"/>
        <request index="1"  response="11111000001111000000" foes="11111100001111000000" cont="0"/>
        <request index="2"  response="11111000001111000000" foes="11111100001111000000" cont="0"/>
        <request index="3"  response="11111000001111000000" foes="11111100001111000000" cont="0"/>
        <request index="4"  response="11110011101111000000" foes="11110011101111000000" cont="1"/>
        <request index="5"  response="00000000000000000000" foes="00000011100000000000" cont="0"/>
        <request index="6"  response="00000100000000010000" foes="10000111100000011111" cont="0"/>
        <request index="7"  response="00000100000000010000" foes="10000111100000011111" cont="0"/>
        <request index="8"  response="00000100000000010000" foes="10000111100000011111" cont="0"/>
        <request index="9"  response="01110100000000010000" foes="01110111100000011110" cont="1"/>
        <request index="10" response="01110000000000000000" foes="01110000000000000000" cont="0"/>
        <request index="11" response="11110000001111100000" foes="11110000001111110000" cont="0"/>
        <request index="12" response="11110000001111100000" foes="11110000001111110000" cont="0"/>
        <request index="13" response="11110000001111100000" foes="11110000001111110000" cont="0"/>
        <request index="14" response="11110000001111001110" foes="11110000001111001110" cont="1"/>
        <request index="15" response="00000000000000000000" foes="00000000000000001110" cont="0"/>
        <request index="16" response="00000100000000010000" foes="00000111111000011110" cont="0"/>
        <request index="17" response="00000100000000010000" foes="00000111111000011110" cont="0"/>
        <request index="18" response="00000100000000010000" foes="00000111111000011110" cont="0"/>
        <request index="19" response="00000100000111010000" foes="00000111100111011110" cont="1"/>
    </junction>
    <junction id="Node3" type="priority" x="270.85" y="1.59" incLanes="Node3-6-NB_0 Node3-6-NB_1 Node3-6-NB_2 Node2-3-EB_0 Node2-3-EB_1 Node2-3-EB_2" intLanes=":Node3_0_0 :Node3_0_1 :Node3_0_2 :Node3_3_0 :Node3_3_1 :Node3_3_2" shape="280.48,-7.89 261.28,-7.94 261.42,11.26 267.23,10.69 271.98,9.07 275.69,6.40 278.34,2.69 279.94,-2.08">
        <request index="0" response="000000" foes="000000" cont="0"/>
        <request index="1" response="000000" foes="000000" cont="0"/>
        <request index="2" response="000000" foes="000000" cont="0"/>
        <request index="3" response="000000" foes="000000" cont="0"/>
        <request index="4" response="000000" foes="000000" cont="0"/>
        <request index="5" response="000000" foes="000000" cont="0"/>
    </junction>
    <junction id="Node4" type="priority" x="-119.88" y="-127.15" incLanes="Node1-4-SB_0 Node1-4-SB_1 Node1-4-SB_2 Node4-5-WB_0 Node4-5-WB_1 Node4-5-WB_2" intLanes=":Node4_0_0 :Node4_0_1 :Node4_0_2 :Node4_3_0 :Node4_3_1 :Node4_3_2" shape="-129.36,-117.47 -110.16,-117.72 -110.50,-136.92 -116.33,-136.28 -121.09,-134.61 -124.77,-131.89 -127.37,-128.12 -128.90,-123.32">
        <request index="0" response="000000" foes="000000" cont="0"/>
        <request index="1" response="000000" foes="000000" cont="0"/>
        <request index="2" response="000000" foes="000000" cont="0"/>
        <request index="3" response="000000" foes="000000" cont="0"/>
        <request index="4" response="000000" foes="000000" cont="0"/>
        <request index="5" response="000000" foes="000000" cont="0"/>
    </junction>
    <junction id="Node5" type="traffic_light" x="77.05" y="-130.63" incLanes="Node2-5-SB_0 Node2-5-SB_1 Node2-5-SB_2 Node5-6-WB_0 Node5-6-WB_1 Node5-6-WB_2 Node4-5-EB_0 Node4-5-EB_1 Node4-5-EB_2" intLanes=":Node5_0_0 :Node5_0_1 :Node5_2_0 :Node5_2_1 :Node5_4_0 :Node5_5_0 :Node5_5_1 :Node5_5_2 :Node5_8_0 :Node5_8_1 :Node5_8_2 :Node5_13_0 :Node5_13_1" shape="67.63,-116.73 86.83,-116.98 87.24,-119.20 87.79,-119.97 88.56,-120.52 89.56,-120.85 90.78,-120.96 90.88,-140.16 63.24,-139.99 63.58,-120.79 65.81,-120.37 66.59,-119.81 67.16,-119.02 67.50,-117.99">
        <request index="0"  response="0000011100000" foes="0000011100000" cont="0"/>
        <request index="1"  response="0000011100000" foes="0000011100000" cont="0"/>
        <request index="2"  response="1111111100000" foes="1111111100000" cont="0"/>
        <request index="3"  response="1111111100000" foes="1111111100000" cont="0"/>
        <request index="4"  response="0000000000000" foes="0000000000000" cont="0"/>
        <request index="5"  response="0000000000000" foes="1100000001111" cont="0"/>
        <request index="6"  response="0000000000000" foes="1100000001111" cont="0"/>
        <request index="7"  response="0000000000000" foes="1100000001111" cont="0"/>
        <request index="8"  response="0000000000000" foes="0000000001100" cont="0"/>
        <request index="9"  response="0000000000000" foes="0000000001100" cont="0"/>
        <request index="10" response="0000000000000" foes="0000000001100" cont="0"/>
        <request index="11" response="0000011100000" foes="0000011101100" cont="1"/>
        <request index="12" response="0000011100000" foes="0000011101100" cont="1"/>
    </junction>
    <junction id="Node6" type="priority" x="271.20" y="-129.59" incLanes="Node5-6-EB_0 Node5-6-EB_1 Node5-6-EB_2 Node3-6-SB_0 Node3-6-SB_1 Node3-6-SB_2" intLanes=":Node6_0_0 :Node6_0_1 :Node6_0_2 :Node6_3_0 :Node6_3_1 :Node6_3_2" shape="261.68,-139.24 261.58,-120.04 280.78,-119.99 280.26,-125.84 278.68,-130.64 276.03,-134.37 272.31,-137.05 267.53,-138.67">
        <request index="0" response="000000" foes="000000" cont="0"/>
        <request index="1" response="000000" foes="000000" cont="0"/>
        <request index="2" response="000000" foes="000000" cont="0"/>
        <request index="3" response="000000" foes="000000" cont="0"/>
        <request index="4" response="000000" foes="000000" cont="0"/>
        <request index="5" response="000000" foes="000000" cont="0"/>
    </junction>
    <junction id="Node7" type="dead_end" x="79.53" y="123.28" incLanes="Node2-7-NB_0 Node2-7-NB_1 Node2-7-NB_2" intLanes="" shape="79.53,123.28 89.13,123.22 79.53,123.28"/>

    <junction id=":Node2_20_0" type="internal" x="77.94" y="11.72" incLanes=":Node2_4_0 Node2-5-NB_0 Node2-5-NB_1 Node2-5-NB_2" intLanes=":Node2_6_0 :Node2_6_1 :Node2_6_2 :Node2_9_0 :Node2_10_0 :Node2_11_0 :Node2_11_1 :Node2_11_2 :Node2_16_0 :Node2_16_1 :Node2_16_2 :Node2_19_0"/>
    <junction id=":Node2_21_0" type="internal" x="87.39" y="3.80" incLanes=":Node2_9_0 Node1-2-EB_0 Node1-2-EB_1 Node1-2-EB_2" intLanes=":Node2_1_0 :Node2_1_1 :Node2_1_2 :Node2_4_0 :Node2_11_0 :Node2_11_1 :Node2_11_2 :Node2_14_0 :Node2_15_0 :Node2_16_0 :Node2_16_1 :Node2_16_2"/>
    <junction id=":Node2_22_0" type="internal" x="79.55" y="-5.65" incLanes=":Node2_14_0 Node2-7-SB_0 Node2-7-SB_1 Node2-7-SB_2" intLanes=":Node2_0_0 :Node2_1_0 :Node2_1_1 :Node2_1_2 :Node2_6_0 :Node2_6_1 :Node2_6_2 :Node2_9_0 :Node2_16_0 :Node2_16_1 :Node2_16_2 :Node2_19_0"/>
    <junction id=":Node2_23_0" type="internal" x="70.03" y="2.11" incLanes=":Node2_19_0 Node2-3-WB_0 Node2-3-WB_1 Node2-3-WB_2" intLanes=":Node2_1_0 :Node2_1_1 :Node2_1_2 :Node2_4_0 :Node2_5_0 :Node2_6_0 :Node2_6_1 :Node2_6_2 :Node2_11_0 :Node2_11_1 :Node2_11_2 :Node2_14_0"/>
    <junction id=":Node5_13_0" type="internal" x="69.94" y="-131.32" incLanes=":Node5_11_0 Node5-6-WB_0 Node5-6-WB_1 Node5-6-WB_2" intLanes=":Node5_2_0 :Node5_2_1 :Node5_5_0 :Node5_5_1 :Node5_5_2"/>
    <junction id=":Node5_13_1" type="internal" x="68.73" y="-131.31" incLanes=":Node5_11_1 Node5-6-WB_0 Node5-6-WB_1 Node5-6-WB_2" intLanes=":Node5_2_0 :Node5_2_1 :Node5_5_0 :Node5_5_1 :Node5_5_2"/>

    <connection from="Node1-2-EB" to="Node2-5-SB" fromLane="0" toLane="0" via=":Node2_15_0" tl="Node2" linkIndex="15" dir="r" state="O"/>
    <connection from="Node1-2-EB" to="Node2-3-EB" fromLane="0" toLane="0" via=":Node2_16_0" tl="Node2" linkIndex="16" dir="s" state="O"/>
    <connection from="Node1-2-EB" to="Node2-3-EB" fromLane="1" toLane="1" via=":Node2_16_1" tl="Node2" linkIndex="17" dir="s" state="O"/>
    <connection from="Node1-2-EB" to="Node2-3-EB" fromLane="2" toLane="2" via=":Node2_16_2" tl="Node2" linkIndex="18" dir="s" state="O"/>
    <connection from="Node1-2-EB" to="Node2-7-NB" fromLane="2" toLane="2" via=":Node2_19_0" tl="Node2" linkIndex="19" dir="l" state="o"/>
    <connection from="Node1-2-WB" to="Node1-4-SB" fromLane="0" toLane="0" via=":Node1_0_0" dir="l" state="M"/>
    <connection from="Node1-2-WB" to="Node1-4-SB" fromLane="1" toLane="1" via=":Node1_0_1" dir="l" state="M"/>
    <connection from="Node1-2-WB" to="Node1-4-SB" fromLane="2" toLane="2" via=":Node1_0_2" dir="l" state="M"/>
    <connection from="Node1-4-NB" to="Node1-2-EB" fromLane="0" toLane="0" via=":Node1_3_0" dir="r" state="M"/>
    <connection from="Node1-4-NB" to="Node1-2-EB" fromLane="1" toLane="1" via=":Node1_3_1" dir="r" state="M"/>
    <connection from="Node1-4-NB" to="Node1-2-EB" fromLane="2" toLane="2" via=":Node1_3_2" dir="r" state="M"/>
    <connection from="Node1-4-SB" to="Node4-5-EB" fromLane="0" toLane="0" via=":Node4_0_0" dir="l" state="M"/>
    <connection from="Node1-4-SB" to="Node4-5-EB" fromLane="1" toLane="1" via=":Node4_0_1" dir="l" state="M"/>
    <connection from="Node1-4-SB" to="Node4-5-EB" fromLane="2" toLane="2" via=":Node4_0_2" dir="l" state="M"/>
    <connection from="Node2-3-EB" to="Node3-6-SB" fromLane="0" toLane="0" via=":Node3_3_0" dir="r" state="M"/>
    <connection from="Node2-3-EB" to="Node3-6-SB" fromLane="1" toLane="1" via=":Node3_3_1" dir="r" state="M"/>