<?xml version="1.0" encoding="UTF-8"?>

<!-- generated on 2025-11-20 07:40:02 by Eclipse SUMO netedit Version 1.24.0
-->

<routes xmlns:xsi="http://www.w3.org/2001/XMLSchema-instance" xsi:noNamespaceSchemaLocation="http://sumo.dlr.de/xsd/routes_file.xsd">
    <!-- Vehicles, persons and containers (sorted by depart) -->
    <flow id="f_0" begin="0.00" from="Node4-5-EB" to="Node1-2-WB" via="Node5-6-EB Node3-6-NB Node2-3-WB" end="3600.00" vehsPerHour="1800"/>
    <flow id="f_1" begin="0.00" from="Node2-7-SB" to="Node1-4-NB" via="Node4-5-WB" end="3600.00" vehsPerHour="1800"/>
    <flow id="f_2" begin="0.00" from="Node1-2-EB" to="Node4-5-WB" via="Node2-3-EB Node3-6-SB" end="3600.00" vehsPerHour="1800"/>
</routes>
